135447702
  -OEChem-06202310452D

114119  0     1  0  0  0  0  0999 V2000
    7.1707    1.9447    0.0000 P   0  0  3  0  0  0  0  0  0  0  0  0
    9.4046   -0.5272    0.0000 O   0  0  0  0  0  0  0  0  0  0  0  0
    8.1485    1.7350    0.0000 O   0  0  0  0  0  0  0  0  0  0  0  0
   11.1292    0.6509    0.0000 O   0  0  0  0  0  0  0  0  0  0  0  0
    6.5003    1.2027    0.0000 O   0  0  0  0  0  0  0  0  0  0  0  0
    6.3301   -4.5898    0.0000 O   0  0  0  0  0  0  0  0  0  0  0  0
   15.1794    3.5828    0.0000 O   0  0  0  0  0  0  0  0  0  0  0  0
   14.2848   -2.0029    0.0000 O   0  0  0  0  0  0  0  0  0  0  0  0
    3.7320   -3.0898    0.0000 O   0  0  0  0  0  0  0  0  0  0  0  0
    8.1424   -1.7851    0.0000 N   0  0  0  0  0  0  0  0  0  0  0  0
    6.8633    2.8963    0.0000 N   0  0  0  0  0  0  0  0  0  0  0  0
    8.1424   -3.3946    0.0000 N   0  0  0  0  0  0  0  0  0  0  0  0
    6.3301   -1.5898    0.0000 N   0  0  0  0  0  0  0  0  0  0  0  0
    5.4641   -3.0898    0.0000 N   0  0  0  0  0  0  0  0  0  0  0  0
    4.5981   -1.5898    0.0000 N   0  0  0  0  0  0  0  0  0  0  0  0
    2.8965    1.0895    0.0000 N   0  0  0  0  0  0  0  0  0  0  0  0
    8.4558    0.7835    0.0000 C   0  0  2  0  0  0  0  0  0  0  0  0
    9.4064    0.4728    0.0000 C   0  0  1  0  0  0  0  0  0  0  0  0
    7.8666   -0.0245    0.0000 C   0  0  0  0  0  0  0  0  0  0  0  0
    8.4530   -0.8346    0.0000 C   0  0  1  0  0  0  0  0  0  0  0  0
   10.2164    1.0592    0.0000 C   0  0  0  0  0  0  0  0  0  0  0  0
   11.9393    1.2372    0.0000 C   0  0  0  0  0  0  0  0  0  0  0  0
    7.1962   -2.0898    0.0000 C   0  0  0  0  0  0  0  0  0  0  0  0
    8.7260   -2.5898    0.0000 C   0  0  0  0  0  0  0  0  0  0  0  0
    7.1962   -3.0898    0.0000 C   0  0  0  0  0  0  0  0  0  0  0  0
   12.7493    1.8236    0.0000 C   0  0  0  0  0  0  0  0  0  0  0  0
   12.5256    0.4272    0.0000 C   0  0  0  0  0  0  0  0  0  0  0  0
   11.3529    2.0473    0.0000 C   0  0  0  0  0  0  0  0  0  0  0  0
    7.5337    3.6382    0.0000 C   0  0  0  0  0  0  0  0  0  0  0  0
    5.8855    3.1059    0.0000 C   0  0  0  0  0  0  0  0  0  0  0  0
    6.3301   -3.5898    0.0000 C   0  0  0  0  0  0  0  0  0  0  0  0
    7.2264    4.5898    0.0000 C   0  0  0  0  0  0  0  0  0  0  0  0
    8.5115    3.4286    0.0000 C   0  0  0  0  0  0  0  0  0  0  0  0
    5.5782    4.0574    0.0000 C   0  0  0  0  0  0  0  0  0  0  0  0
    5.2151    2.3639    0.0000 C   0  0  0  0  0  0  0  0  0  0  0  0
   12.6465    2.8183    0.0000 C   0  0  0  0  0  0  0  0  0  0  0  0
   13.5203    0.5300    0.0000 C   0  0  0  0  0  0  0  0  0  0  0  0
   13.6621    1.4153    0.0000 C   0  0  0  0  0  0  0  0  0  0  0  0
   12.1173   -0.4856    0.0000 C   0  0  0  0  0  0  0  0  0  0  0  0
   10.3582    1.9445    0.0000 C   0  0  0  0  0  0  0  0  0  0  0  0
   11.7612    2.9601    0.0000 C   0  0  0  0  0  0  0  0  0  0  0  0
    5.4641   -2.0898    0.0000 C   0  0  0  0  0  0  0  0  0  0  0  0
    5.5225    1.4123    0.0000 C   0  0  0  0  0  0  0  0  0  0  0  0
   13.4565    3.4047    0.0000 C   0  0  0  0  0  0  0  0  0  0  0  0
   14.1067   -0.2800    0.0000 C   0  0  0  0  0  0  0  0  0  0  0  0
   14.4722    2.0017    0.0000 C   0  0  0  0  0  0  0  0  0  0  0  0
   12.7037   -1.2956    0.0000 C   0  0  0  0  0  0  0  0  0  0  0  0
    9.7718    2.7545    0.0000 C   0  0  0  0  0  0  0  0  0  0  0  0
   11.1748    3.7702    0.0000 C   0  0  0  0  0  0  0  0  0  0  0  0
   14.3694    2.9964    0.0000 C   0  0  0  0  0  0  0  0  0  0  0  0
   13.6984   -1.1928    0.0000 C   0  0  0  0  0  0  0  0  0  0  0  0
   10.1801    3.6674    0.0000 C   0  0  0  0  0  0  0  0  0  0  0  0
    4.8521    0.6703    0.0000 C   0  0  0  0  0  0  0  0  0  0  0  0
    3.7320   -2.0898    0.0000 C   0  0  0  0  0  0  0  0  0  0  0  0
    2.8660   -1.5898    0.0000 C   0  0  0  0  0  0  0  0  0  0  0  0
    3.8743    0.8799    0.0000 C   0  0  0  0  0  0  0  0  0  0  0  0
    2.0000   -2.0898    0.0000 C   0  0  0  0  0  0  0  0  0  0  0  0
    2.8660   -0.5898    0.0000 C   0  0  0  0  0  0  0  0  0  0  0  0
   16.0922    3.1745    0.0000 C   0  0  0  0  0  0  0  0  0  0  0  0
   15.2795   -1.9001    0.0000 C   0  0  0  0  0  0  0  0  0  0  0  0
    7.8436    0.8815    0.0000 H   0  0  0  0  0  0  0  0  0  0  0  0
    9.9583    0.1904    0.0000 H   0  0  0  0  0  0  0  0  0  0  0  0
    7.4066    0.3911    0.0000 H   0  0  0  0  0  0  0  0  0  0  0  0
    7.4052   -0.4386    0.0000 H   0  0  0  0  0  0  0  0  0  0  0  0
    7.8405   -0.9305    0.0000 H   0  0  0  0  0  0  0  0  0  0  0  0
   10.5640    1.5726    0.0000 H   0  0  0  0  0  0  0  0  0  0  0  0
    9.7711    1.4906    0.0000 H   0  0  0  0  0  0  0  0  0  0  0  0
    9.3460   -2.5898    0.0000 H   0  0  0  0  0  0  0  0  0  0  0  0
    7.7243    3.0482    0.0000 H   0  0  0  0  0  0  0  0  0  0  0  0
    6.3012    3.5659    0.0000 H   0  0  0  0  0  0  0  0  0  0  0  0
    7.8163    4.7804    0.0000 H   0  0  0  0  0  0  0  0  0  0  0  0
    7.0358    5.1798    0.0000 H   0  0  0  0  0  0  0  0  0  0  0  0
    6.6364    4.3992    0.0000 H   0  0  0  0  0  0  0  0  0  0  0  0
    8.3816    2.8224    0.0000 H   0  0  0  0  0  0  0  0  0  0  0  0
    9.1177    3.2987    0.0000 H   0  0  0  0  0  0  0  0  0  0  0  0
    8.6415    4.0349    0.0000 H   0  0  0  0  0  0  0  0  0  0  0  0
    6.1681    4.2480    0.0000 H   0  0  0  0  0  0  0  0  0  0  0  0
    5.3876    4.6474    0.0000 H   0  0  0  0  0  0  0  0  0  0  0  0
    4.9882    3.8669    0.0000 H   0  0  0  0  0  0  0  0  0  0  0  0
    4.7551    2.7795    0.0000 H   0  0  0  0  0  0  0  0  0  0  0  0
    4.7994    1.9038    0.0000 H   0  0  0  0  0  0  0  0  0  0  0  0
    5.6751    1.9482    0.0000 H   0  0  0  0  0  0  0  0  0  0  0  0
   12.0805    3.0715    0.0000 H   0  0  0  0  0  0  0  0  0  0  0  0
   13.7735    1.0960    0.0000 H   0  0  0  0  0  0  0  0  0  0  0  0
   13.7259    0.7986    0.0000 H   0  0  0  0  0  0  0  0  0  0  0  0
   11.5006   -0.5494    0.0000 H   0  0  0  0  0  0  0  0  0  0  0  0
   10.1050    1.3785    0.0000 H   0  0  0  0  0  0  0  0  0  0  0  0
   12.3779    3.0239    0.0000 H   0  0  0  0  0  0  0  0  0  0  0  0
    4.9272   -3.3998    0.0000 H   0  0  0  0  0  0  0  0  0  0  0  0
    5.7557    1.9867    0.0000 H   0  0  0  0  0  0  0  0  0  0  0  0
    4.9972    1.7417    0.0000 H   0  0  0  0  0  0  0  0  0  0  0  0
   13.3928    4.0214    0.0000 H   0  0  0  0  0  0  0  0  0  0  0  0
   14.7234   -0.2163    0.0000 H   0  0  0  0  0  0  0  0  0  0  0  0
   15.0381    1.7486    0.0000 H   0  0  0  0  0  0  0  0  0  0  0  0
   12.4506   -1.8616    0.0000 H   0  0  0  0  0  0  0  0  0  0  0  0
    9.1551    2.6908    0.0000 H   0  0  0  0  0  0  0  0  0  0  0  0
   11.4280    4.3361    0.0000 H   0  0  0  0  0  0  0  0  0  0  0  0
    4.5981   -0.9698    0.0000 H   0  0  0  0  0  0  0  0  0  0  0  0
    9.8166    4.1696    0.0000 H   0  0  0  0  0  0  0  0  0  0  0  0
    4.6188    0.0958    0.0000 H   0  0  0  0  0  0  0  0  0  0  0  0
    5.3773    0.3408    0.0000 H   0  0  0  0  0  0  0  0  0  0  0  0
    2.8660   -2.2098    0.0000 H   0  0  0  0  0  0  0  0  0  0  0  0
    1.6900   -1.5529    0.0000 H   0  0  0  0  0  0  0  0  0  0  0  0
    1.4631   -2.3998    0.0000 H   0  0  0  0  0  0  0  0  0  0  0  0
    2.3100   -2.6268    0.0000 H   0  0  0  0  0  0  0  0  0  0  0  0
    3.4860   -0.5898    0.0000 H   0  0  0  0  0  0  0  0  0  0  0  0
    2.8660    0.0302    0.0000 H   0  0  0  0  0  0  0  0  0  0  0  0
    2.2460   -0.5898    0.0000 H   0  0  0  0  0  0  0  0  0  0  0  0
   15.8391    2.6085    0.0000 H   0  0  0  0  0  0  0  0  0  0  0  0
   16.6582    2.9213    0.0000 H   0  0  0  0  0  0  0  0  0  0  0  0
   16.3454    3.7404    0.0000 H   0  0  0  0  0  0  0  0  0  0  0  0
   15.3432   -2.5168    0.0000 H   0  0  0  0  0  0  0  0  0  0  0  0
   15.8962   -1.8363    0.0000 H   0  0  0  0  0  0  0  0  0  0  0  0
   15.2158   -1.2834    0.0000 H   0  0  0  0  0  0  0  0  0  0  0  0
  1  3  1  0  0  0  0
  1  5  1  0  0  0  0
  1 11  1  0  0  0  0
  2 18  1  0  0  0  0
  2 20  1  0  0  0  0
 17  3  1  6  0  0  0
  4 21  1  0  0  0  0
  4 22  1  0  0  0  0
  5 43  1  0  0  0  0
  6 31  2  0  0  0  0
  7 50  1  0  0  0  0
  7 59  1  0  0  0  0
  8 51  1  0  0  0  0
  8 60  1  0  0  0  0
  9 54  2  0  0  0  0
 20 10  1  1  0  0  0
 10 23  1  0  0  0  0
 10 24  1  0  0  0  0
 11 29  1  0  0  0  0
 11 30  1  0  0  0  0
 12 24  2  0  0  0  0
 12 25  1  0  0  0  0
 13 23  1  0  0  0  0
 13 42  2  0  0  0  0
 14 31  1  0  0  0  0
 14 42  1  0  0  0  0
 14 89  1  0  0  0  0
 15 42  1  0  0  0  0
 15 54  1  0  0  0  0
 15 98  1  0  0  0  0
 16 56  3  0  0  0  0
 17 18  1  0  0  0  0
 17 19  1  0  0  0  0
 17 61  1  0  0  0  0
 18 21  1  1  0  0  0
 18 62  1  0  0  0  0
 19 20  1  0  0  0  0
 19 63  1  0  0  0  0
 19 64  1  0  0  0  0
 20 65  1  0  0  0  0
 21 66  1  0  0  0  0
 21 67  1  0  0  0  0
 22 26  1  0  0  0  0
 22 27  1  0  0  0  0
 22 28  1  0  0  0  0
 23 25  2  0  0  0  0
 24 68  1  0  0  0  0
 25 31  1  0  0  0  0
 26 36  2  0  0  0  0
 26 38  1  0  0  0  0
 27 37  2  0  0  0  0
 27 39  1  0  0  0  0
 28 40  2  0  0  0  0
 28 41  1  0  0  0  0
 29 32  1  0  0  0  0
 29 33  1  0  0  0  0
 29 69  1  0  0  0  0
 30 34  1  0  0  0  0
 30 35  1  0  0  0  0
 30 70  1  0  0  0  0
 32 71  1  0  0  0  0
 32 72  1  0  0  0  0
 32 73  1  0  0  0  0
 33 74  1  0  0  0  0
 33 75  1  0  0  0  0
 33 76  1  0  0  0  0
 34 77  1  0  0  0  0
 34 78  1  0  0  0  0
 34 79  1  0  0  0  0
 35 80  1  0  0  0  0
 35 81  1  0  0  0  0
 35 82  1  0  0  0  0
 36 44  1  0  0  0  0
 36 83  1  0  0  0  0
 37 45  1  0  0  0  0
 37 84  1  0  0  0  0
 38 46  2  0  0  0  0
 38 85  1  0  0  0  0
 39 47  2  0  0  0  0
 39 86  1  0  0  0  0
 40 48  1  0  0  0  0
 40 87  1  0  0  0  0
 41 49  2  0  0  0  0
 41 88  1  0  0  0  0
 43 53  1  0  0  0  0
 43 90  1  0  0  0  0
 43 91  1  0  0  0  0
 44 50  2  0  0  0  0
 44 92  1  0  0  0  0
 45 51  2  0  0  0  0
 45 93  1  0  0  0  0
 46 50  1  0  0  0  0
 46 94  1  0  0  0  0
 47 51  1  0  0  0  0
 47 95  1  0  0  0  0
 48 52  2  0  0  0  0
 48 96  1  0  0  0  0
 49 52  1  0  0  0  0
 49 97  1  0  0  0  0
 52 99  1  0  0  0  0
 53 56  1  0  0  0  0
 53100  1  0  0  0  0
 53101  1  0  0  0  0
 54 55  1  0  0  0  0
 55 57  1  0  0  0  0
 55 58  1  0  0  0  0
 55102  1  0  0  0  0
 57103  1  0  0  0  0
 57104  1  0  0  0  0
 57105  1  0  0  0  0
 58106  1  0  0  0  0
 58107  1  0  0  0  0
 58108  1  0  0  0  0
 59109  1  0  0  0  0
 59110  1  0  0  0  0
 59111  1  0  0  0  0
 60112  1  0  0  0  0
 60113  1  0  0  0  0
 60114  1  0  0  0  0
M  END
> <PUBCHEM_COMPOUND_CID>
135447702

> <PUBCHEM_COMPOUND_CANONICALIZED>
1

> <PUBCHEM_CACTVS_COMPLEXITY>
1440

> <PUBCHEM_CACTVS_HBOND_ACCEPTOR>
12

> <PUBCHEM_CACTVS_HBOND_DONOR>
2

> <PUBCHEM_CACTVS_ROTATABLE_BOND>
19

> <PUBCHEM_CACTVS_SUBSKEYS>
AAADcfB/vAIAAAAAAAAAAAAAAAAAAWJAAAAwYMEAAAAAAEAB1AAAHgAQgCAADXzhngY3tpfMFRC4BydzdACCiC03MKAJ2AGuXMiN7irE+TqeMKgv0RPKqGew8P4OoAAAAAAAAABAAAAAAAAAAAAAAAAAAA==

> <PUBCHEM_IUPAC_OPENEYE_NAME>
N-[9-[(2R,4S,5R)-5-[[bis(4-methoxyphenyl)-phenyl-methoxy]methyl]-4-[2-cyanoethoxy-(diisopropylamino)phosphanyl]oxy-tetrahydrofuran-2-yl]-6-oxo-1H-purin-2-yl]-2-methyl-propanamide

> <PUBCHEM_IUPAC_CAS_NAME>
N-[9-[(2R,4S,5R)-5-[[bis(4-methoxyphenyl)-phenylmethoxy]methyl]-4-[2-cyanoethoxy-[di(propan-2-yl)amino]phosphino]oxy-2-oxolanyl]-6-oxo-1H-purin-2-yl]-2-methylpropanamide

> <PUBCHEM_IUPAC_NAME_MARKUP>
<I>N</I>-[9-[(2<I>R</I>,4<I>S</I>,5<I>R</I>)-5-[[bis(4-methoxyphenyl)-phenylmethoxy]methyl]-4-[2-cyanoethoxy-[di(propan-2-yl)amino]phosphanyl]oxyoxolan-2-yl]-6-oxo-1<I>H</I>-purin-2-yl]-2-methylpropanamide

> <PUBCHEM_IUPAC_NAME>
N-[9-[(2R,4S,5R)-5-[[bis(4-methoxyphenyl)-phenylmethoxy]methyl]-4-[2-cyanoethoxy-[di(propan-2-yl)amino]phosphanyl]oxyoxolan-2-yl]-6-oxo-1H-purin-2-yl]-2-methylpropanamide

> <PUBCHEM_IUPAC_SYSTEMATIC_NAME>
N-[9-[(2R,4S,5R)-5-[[bis(4-methoxyphenyl)-phenyl-methoxy]methyl]-4-[2-cyanoethoxy-[di(propan-2-yl)amino]phosphanyl]oxy-oxolan-2-yl]-6-oxidanylidene-1H-purin-2-yl]-2-methyl-propanamide

> <PUBCHEM_IUPAC_TRADITIONAL_NAME>
N-[9-[(2R,4S,5R)-5-[[bis(4-methoxyphenyl)-phenyl-methoxy]methyl]-4-[2-cyanoethoxy-(diisopropylamino)phosphino]oxy-tetrahydrofuran-2-yl]-6-keto-1H-purin-2-yl]-2-methyl-propionamide

> <PUBCHEM_IUPAC_INCHI>
InChI=1S/C44H54N7O8P/c1-28(2)41(52)48-43-47-40-39(42(53)49-43)46-27-50(40)38-25-36(59-60(57-24-12-23-45)51(29(3)4)30(5)6)37(58-38)26-56-44(31-13-10-9-11-14-31,32-15-19-34(54-7)20-16-32)33-17-21-35(55-8)22-18-33/h9-11,13-22,27-30,36-38H,12,24-26H2,1-8H3,(H2,47,48,49,52,53)/t36-,37+,38+,60?/m0/s1

> <PUBCHEM_IUPAC_INCHIKEY>
FDRMKYVTIFSDPR-MMROLVBFSA-N

> <PUBCHEM_XLOGP3_AA>
6.1

> <PUBCHEM_EXACT_MASS>
839.37714870

> <PUBCHEM_MOLECULAR_FORMULA>
C44H54N7O8P

> <PUBCHEM_MOLECULAR_WEIGHT>
839.9

> <PUBCHEM_OPENEYE_CAN_SMILES>
CC(C)C(=O)NC1=NC2=C(C(=O)N1)N=CN2C3CC(C(O3)COC(C4=CC=CC=C4)(C5=CC=C(C=C5)OC)C6=CC=C(C=C6)OC)OP(N(C(C)C)C(C)C)OCCC#N

> <PUBCHEM_OPENEYE_ISO_SMILES>
CC(C)C(=O)NC1=NC2=C(C(=O)N1)N=CN2[C@H]3C[C@@H]([C@H](O3)COC(C4=CC=CC=C4)(C5=CC=C(C=C5)OC)C6=CC=C(C=C6)OC)OP(N(C(C)C)C(C)C)OCCC#N

> <PUBCHEM_CACTVS_TPSA>
171

> <PUBCHEM_MONOISOTOPIC_WEIGHT>
839.37714870

> <PUBCHEM_TOTAL_CHARGE>
0

> <PUBCHEM_HEAVY_ATOM_COUNT>
60

> <PUBCHEM_ATOM_DEF_STEREO_COUNT>
3

> <PUBCHEM_ATOM_UDEF_STEREO_COUNT>
1

> <PUBCHEM_BOND_DEF_STEREO_COUNT>
0

> <PUBCHEM_BOND_UDEF_STEREO_COUNT>
0

> <PUBCHEM_ISOTOPIC_ATOM_COUNT>
0

> <PUBCHEM_COMPONENT_COUNT>
1

> <PUBCHEM_CACTVS_TAUTO_COUNT>
22

> <PUBCHEM_COORDINATE_TYPE>
1
5
255

> <PUBCHEM_BONDANNOTATIONS>
1  11  3
20  10  5
10  23  8
10  24  8
12  24  8
12  25  8
13  23  8
13  42  8
14  31  8
14  42  8
18  21  5
23  25  8
25  31  8
26  36  8
26  38  8
27  37  8
27  39  8
28  40  8
28  41  8
17  3  6
36  44  8
37  45  8
38  46  8
39  47  8
40  48  8
41  49  8
44  50  8
45  51  8
46  50  8
47  51  8
48  52  8
49  52  8

$$$$
