9962711
  -OEChem-06202310382D

114120  0     1  0  0  0  0  0999 V2000
   10.8143   -1.2397    0.0000 P   0  0  3  0  0  0  0  0  0  0  0  0
    7.5517   -0.5643    0.0000 O   0  0  0  0  0  0  0  0  0  0  0  0
    9.9014   -1.6480    0.0000 O   0  0  0  0  0  0  0  0  0  0  0  0
    6.8557   -2.5335    0.0000 O   0  0  0  0  0  0  0  0  0  0  0  0
   10.9171   -0.2450    0.0000 O   0  0  0  0  0  0  0  0  0  0  0  0
    5.3189   -7.2914    0.0000 O   0  0  0  0  0  0  0  0  0  0  0  0
    2.7420   -2.2556    0.0000 O   0  0  0  0  0  0  0  0  0  0  0  0
    4.2831    4.0010    0.0000 O   0  0  0  0  0  0  0  0  0  0  0  0
    7.8274    1.1963    0.0000 N   0  0  0  0  0  0  0  0  0  0  0  0
   11.6243   -1.8261    0.0000 N   0  0  0  0  0  0  0  0  0  0  0  0
    7.8274    2.8058    0.0000 N   0  0  0  0  0  0  0  0  0  0  0  0
    6.0152    1.0010    0.0000 N   0  0  0  0  0  0  0  0  0  0  0  0
    5.1491    2.5010    0.0000 N   0  0  0  0  0  0  0  0  0  0  0  0
    6.0152    4.0010    0.0000 N   0  0  0  0  0  0  0  0  0  0  0  0
   13.7584    1.9747    0.0000 N   0  0  0  0  0  0  0  0  0  0  0  0
    9.0914   -1.0616    0.0000 C   0  0  2  0  0  0  0  0  0  0  0  0
    8.1409   -1.3723    0.0000 C   0  0  1  0  0  0  0  0  0  0  0  0
    9.0897   -0.0616    0.0000 C   0  0  0  0  0  0  0  0  0  0  0  0
    8.1381    0.2458    0.0000 C   0  0  1  0  0  0  0  0  0  0  0  0
    7.8335   -2.3239    0.0000 C   0  0  0  0  0  0  0  0  0  0  0  0
    6.5484   -3.4850    0.0000 C   0  0  0  0  0  0  0  0  0  0  0  0
    6.8812    1.5010    0.0000 C   0  0  0  0  0  0  0  0  0  0  0  0
    8.4110    2.0010    0.0000 C   0  0  0  0  0  0  0  0  0  0  0  0
    6.8812    2.5010    0.0000 C   0  0  0  0  0  0  0  0  0  0  0  0
    6.2410   -4.4366    0.0000 C   0  0  0  0  0  0  0  0  0  0  0  0
    5.5968   -3.1777    0.0000 C   0  0  0  0  0  0  0  0  0  0  0  0
    7.4999   -3.7924    0.0000 C   0  0  0  0  0  0  0  0  0  0  0  0
   12.5371   -1.4177    0.0000 C   0  0  0  0  0  0  0  0  0  0  0  0
   11.5215   -2.8208    0.0000 C   0  0  0  0  0  0  0  0  0  0  0  0
    6.0152    3.0010    0.0000 C   0  0  0  0  0  0  0  0  0  0  0  0
   13.3472   -2.0041    0.0000 C   0  0  0  0  0  0  0  0  0  0  0  0
   12.6399   -0.4230    0.0000 C   0  0  0  0  0  0  0  0  0  0  0  0
   12.3315   -3.4071    0.0000 C   0  0  0  0  0  0  0  0  0  0  0  0
   10.6087   -3.2291    0.0000 C   0  0  0  0  0  0  0  0  0  0  0  0
    5.2632   -4.6462    0.0000 C   0  0  0  0  0  0  0  0  0  0  0  0
    4.8548   -3.8481    0.0000 C   0  0  0  0  0  0  0  0  0  0  0  0
    6.9114   -5.1786    0.0000 C   0  0  0  0  0  0  0  0  0  0  0  0
    5.3872   -2.1999    0.0000 C   0  0  0  0  0  0  0  0  0  0  0  0
    8.2419   -3.1220    0.0000 C   0  0  0  0  0  0  0  0  0  0  0  0
    7.7095   -4.7702    0.0000 C   0  0  0  0  0  0  0  0  0  0  0  0
   11.8299    0.1633    0.0000 C   0  0  0  0  0  0  0  0  0  0  0  0
    5.1491    1.5010    0.0000 C   0  0  0  0  0  0  0  0  0  0  0  0
    4.9558   -5.5978    0.0000 C   0  0  0  0  0  0  0  0  0  0  0  0
    3.9032   -3.5407    0.0000 C   0  0  0  0  0  0  0  0  0  0  0  0
    6.6040   -6.1302    0.0000 C   0  0  0  0  0  0  0  0  0  0  0  0
    4.4356   -1.8925    0.0000 C   0  0  0  0  0  0  0  0  0  0  0  0
    9.1935   -3.4294    0.0000 C   0  0  0  0  0  0  0  0  0  0  0  0
    8.6611   -5.0776    0.0000 C   0  0  0  0  0  0  0  0  0  0  0  0
    5.6262   -6.3398    0.0000 C   0  0  0  0  0  0  0  0  0  0  0  0
    3.6936   -2.5629    0.0000 C   0  0  0  0  0  0  0  0  0  0  0  0
    9.4031   -4.4072    0.0000 C   0  0  0  0  0  0  0  0  0  0  0  0
   11.9327    1.1580    0.0000 C   0  0  0  0  0  0  0  0  0  0  0  0
    5.1491    4.5010    0.0000 C   0  0  0  0  0  0  0  0  0  0  0  0
    5.1491    5.5010    0.0000 C   0  0  0  0  0  0  0  0  0  0  0  0
   12.8456    1.5664    0.0000 C   0  0  0  0  0  0  0  0  0  0  0  0
    4.3411   -7.5010    0.0000 C   0  0  0  0  0  0  0  0  0  0  0  0
    2.0000   -2.9260    0.0000 C   0  0  0  0  0  0  0  0  0  0  0  0
    4.2831    6.0010    0.0000 C   0  0  0  0  0  0  0  0  0  0  0  0
    6.0152    6.0010    0.0000 C   0  0  0  0  0  0  0  0  0  0  0  0
    4.2831    7.0010    0.0000 C   0  0  0  0  0  0  0  0  0  0  0  0
    6.0152    7.0010    0.0000 C   0  0  0  0  0  0  0  0  0  0  0  0
    5.1491    7.5010    0.0000 C   0  0  0  0  0  0  0  0  0  0  0  0
    9.6433   -0.7792    0.0000 H   0  0  0  0  0  0  0  0  0  0  0  0
    7.5287   -1.4703    0.0000 H   0  0  0  0  0  0  0  0  0  0  0  0
    9.7064   -0.1253    0.0000 H   0  0  0  0  0  0  0  0  0  0  0  0
    9.2175    0.5451    0.0000 H   0  0  0  0  0  0  0  0  0  0  0  0
    7.5255    0.3417    0.0000 H   0  0  0  0  0  0  0  0  0  0  0  0
    7.8562   -2.9434    0.0000 H   0  0  0  0  0  0  0  0  0  0  0  0
    8.4476   -2.4091    0.0000 H   0  0  0  0  0  0  0  0  0  0  0  0
    9.0310    2.0010    0.0000 H   0  0  0  0  0  0  0  0  0  0  0  0
   12.4734   -2.0345    0.0000 H   0  0  0  0  0  0  0  0  0  0  0  0
   12.0875   -2.5676    0.0000 H   0  0  0  0  0  0  0  0  0  0  0  0
   12.9836   -2.5064    0.0000 H   0  0  0  0  0  0  0  0  0  0  0  0
   13.8494   -2.3677    0.0000 H   0  0  0  0  0  0  0  0  0  0  0  0
   13.7107   -1.5019    0.0000 H   0  0  0  0  0  0  0  0  0  0  0  0
   13.2567   -0.4868    0.0000 H   0  0  0  0  0  0  0  0  0  0  0  0
   12.7037    0.1937    0.0000 H   0  0  0  0  0  0  0  0  0  0  0  0
   12.0232   -0.3593    0.0000 H   0  0  0  0  0  0  0  0  0  0  0  0
   11.9680   -3.9094    0.0000 H   0  0  0  0  0  0  0  0  0  0  0  0
   12.8337   -3.7707    0.0000 H   0  0  0  0  0  0  0  0  0  0  0  0
   12.6951   -2.9049    0.0000 H   0  0  0  0  0  0  0  0  0  0  0  0
   10.3555   -2.6631    0.0000 H   0  0  0  0  0  0  0  0  0  0  0  0
   10.0427   -3.4822    0.0000 H   0  0  0  0  0  0  0  0  0  0  0  0
   10.8618   -3.7950    0.0000 H   0  0  0  0  0  0  0  0  0  0  0  0
    4.8475   -4.1862    0.0000 H   0  0  0  0  0  0  0  0  0  0  0  0
    4.9847   -4.4543    0.0000 H   0  0  0  0  0  0  0  0  0  0  0  0
    7.5176   -5.0487    0.0000 H   0  0  0  0  0  0  0  0  0  0  0  0
    5.8472   -1.7842    0.0000 H   0  0  0  0  0  0  0  0  0  0  0  0
    8.1120   -2.5158    0.0000 H   0  0  0  0  0  0  0  0  0  0  0  0
    7.2495   -5.1859    0.0000 H   0  0  0  0  0  0  0  0  0  0  0  0
   11.9809   -0.4380    0.0000 H   0  0  0  0  0  0  0  0  0  0  0  0
   12.4483    0.2077    0.0000 H   0  0  0  0  0  0  0  0  0  0  0  0
    4.6122    1.1910    0.0000 H   0  0  0  0  0  0  0  0  0  0  0  0
    4.3496   -5.7278    0.0000 H   0  0  0  0  0  0  0  0  0  0  0  0
    3.4432   -3.9564    0.0000 H   0  0  0  0  0  0  0  0  0  0  0  0
    7.0197   -6.5902    0.0000 H   0  0  0  0  0  0  0  0  0  0  0  0
    4.3056   -1.2863    0.0000 H   0  0  0  0  0  0  0  0  0  0  0  0
    9.6535   -3.0137    0.0000 H   0  0  0  0  0  0  0  0  0  0  0  0
    8.7911   -5.6838    0.0000 H   0  0  0  0  0  0  0  0  0  0  0  0
    6.5521    4.3110    0.0000 H   0  0  0  0  0  0  0  0  0  0  0  0
    9.9931   -4.5977    0.0000 H   0  0  0  0  0  0  0  0  0  0  0  0
   11.7817    1.7594    0.0000 H   0  0  0  0  0  0  0  0  0  0  0  0
   11.3143    1.1137    0.0000 H   0  0  0  0  0  0  0  0  0  0  0  0
    4.2111   -6.8948    0.0000 H   0  0  0  0  0  0  0  0  0  0  0  0
    3.7348   -7.6310    0.0000 H   0  0  0  0  0  0  0  0  0  0  0  0
    4.4710   -8.1072    0.0000 H   0  0  0  0  0  0  0  0  0  0  0  0
    1.5843   -2.4660    0.0000 H   0  0  0  0  0  0  0  0  0  0  0  0
    1.5400   -3.3416    0.0000 H   0  0  0  0  0  0  0  0  0  0  0  0
    2.4157   -3.3860    0.0000 H   0  0  0  0  0  0  0  0  0  0  0  0
    3.7462    5.6910    0.0000 H   0  0  0  0  0  0  0  0  0  0  0  0
    6.5521    5.6910    0.0000 H   0  0  0  0  0  0  0  0  0  0  0  0
    3.7462    7.3110    0.0000 H   0  0  0  0  0  0  0  0  0  0  0  0
    6.5521    7.3110    0.0000 H   0  0  0  0  0  0  0  0  0  0  0  0
    5.1491    8.1210    0.0000 H   0  0  0  0  0  0  0  0  0  0  0  0
  1  3  1  0  0  0  0
  1  5  1  0  0  0  0
  1 10  1  0  0  0  0
  2 17  1  0  0  0  0
  2 19  1  0  0  0  0
 16  3  1  6  0  0  0
  4 20  1  0  0  0  0
  4 21  1  0  0  0  0
  5 41  1  0  0  0  0
  6 49  1  0  0  0  0
  6 56  1  0  0  0  0
  7 50  1  0  0  0  0
  7 57  1  0  0  0  0
  8 53  2  0  0  0  0
 19  9  1  1  0  0  0
  9 22  1  0  0  0  0
  9 23  1  0  0  0  0
 10 28  1  0  0  0  0
 10 29  1  0  0  0  0
 11 23  2  0  0  0  0
 11 24  1  0  0  0  0
 12 22  2  0  0  0  0
 12 42  1  0  0  0  0
 13 30  1  0  0  0  0
 13 42  2  0  0  0  0
 14 30  1  0  0  0  0
 14 53  1  0  0  0  0
 14100  1  0  0  0  0
 15 55  3  0  0  0  0
 16 17  1  0  0  0  0
 16 18  1  0  0  0  0
 16 63  1  0  0  0  0
 17 20  1  1  0  0  0
 17 64  1  0  0  0  0
 18 19  1  0  0  0  0
 18 65  1  0  0  0  0
 18 66  1  0  0  0  0
 19 67  1  0  0  0  0
 20 68  1  0  0  0  0
 20 69  1  0  0  0  0
 21 25  1  0  0  0  0
 21 26  1  0  0  0  0
 21 27  1  0  0  0  0
 22 24  1  0  0  0  0
 23 70  1  0  0  0  0
 24 30  2  0  0  0  0
 25 35  2  0  0  0  0
 25 37  1  0  0  0  0
 26 36  2  0  0  0  0
 26 38  1  0  0  0  0
 27 39  2  0  0  0  0
 27 40  1  0  0  0  0
 28 31  1  0  0  0  0
 28 32  1  0  0  0  0
 28 71  1  0  0  0  0
 29 33  1  0  0  0  0
 29 34  1  0  0  0  0
 29 72  1  0  0  0  0
 31 73  1  0  0  0  0
 31 74  1  0  0  0  0
 31 75  1  0  0  0  0
 32 76  1  0  0  0  0
 32 77  1  0  0  0  0
 32 78  1  0  0  0  0
 33 79  1  0  0  0  0
 33 80  1  0  0  0  0
 33 81  1  0  0  0  0
 34 82  1  0  0  0  0
 34 83  1  0  0  0  0
 34 84  1  0  0  0  0
 35 43  1  0  0  0  0
 35 85  1  0  0  0  0
 36 44  1  0  0  0  0
 36 86  1  0  0  0  0
 37 45  2  0  0  0  0
 37 87  1  0  0  0  0
 38 46  2  0  0  0  0
 38 88  1  0  0  0  0
 39 47  1  0  0  0  0
 39 89  1  0  0  0  0
 40 48  2  0  0  0  0
 40 90  1  0  0  0  0
 41 52  1  0  0  0  0
 41 91  1  0  0  0  0
 41 92  1  0  0  0  0
 42 93  1  0  0  0  0
 43 49  2  0  0  0  0
 43 94  1  0  0  0  0
 44 50  2  0  0  0  0
 44 95  1  0  0  0  0
 45 49  1  0  0  0  0
 45 96  1  0  0  0  0
 46 50  1  0  0  0  0
 46 97  1  0  0  0  0
 47 51  2  0  0  0  0
 47 98  1  0  0  0  0
 48 51  1  0  0  0  0
 48 99  1  0  0  0  0
 51101  1  0  0  0  0
 52 55  1  0  0  0  0
 52102  1  0  0  0  0
 52103  1  0  0  0  0
 53 54  1  0  0  0  0
 54 58  2  0  0  0  0
 54 59  1  0  0  0  0
 56104  1  0  0  0  0
 56105  1  0  0  0  0
 56106  1  0  0  0  0
 57107  1  0  0  0  0
 57108  1  0  0  0  0
 57109  1  0  0  0  0
 58 60  1  0  0  0  0
 58110  1  0  0  0  0
 59 61  2  0  0  0  0
 59111  1  0  0  0  0
 60 62  2  0  0  0  0
 60112  1  0  0  0  0
 61 62  1  0  0  0  0
 61113  1  0  0  0  0
 62114  1  0  0  0  0
M  END
> <PUBCHEM_COMPOUND_CID>
9962711

> <PUBCHEM_COMPOUND_CANONICALIZED>
1

> <PUBCHEM_CACTVS_COMPLEXITY>
1380

> <PUBCHEM_CACTVS_HBOND_ACCEPTOR>
12

> <PUBCHEM_CACTVS_HBOND_DONOR>
1

> <PUBCHEM_CACTVS_ROTATABLE_BOND>
19

> <PUBCHEM_CACTVS_SUBSKEYS>
AAADcfB/uAIAAAAAAAAAAAAAAAAAAWJAAAA8YMGCAAAAAFgB/AAAHgAQgCAADHzhnwY39r/MFRC4BydzdACCiC01MKAJ2CEuXNiN7jLE/VueNShvxRPKqae4+P6OoAAAAAAAAABAAAAAAAAAAAAAAAAAAA==

> <PUBCHEM_IUPAC_OPENEYE_NAME>
N-[9-[(2R,4S,5R)-5-[[bis(4-methoxyphenyl)-phenyl-methoxy]methyl]-4-[2-cyanoethoxy-(diisopropylamino)phosphanyl]oxy-tetrahydrofuran-2-yl]purin-6-yl]benzamide

> <PUBCHEM_IUPAC_CAS_NAME>
N-[9-[(2R,4S,5R)-5-[[bis(4-methoxyphenyl)-phenylmethoxy]methyl]-4-[2-cyanoethoxy-[di(propan-2-yl)amino]phosphino]oxy-2-oxolanyl]-6-purinyl]benzamide

> <PUBCHEM_IUPAC_NAME_MARKUP>
<I>N</I>-[9-[(2<I>R</I>,4<I>S</I>,5<I>R</I>)-5-[[bis(4-methoxyphenyl)-phenylmethoxy]methyl]-4-[2-cyanoethoxy-[di(propan-2-yl)amino]phosphanyl]oxyoxolan-2-yl]purin-6-yl]benzamide

> <PUBCHEM_IUPAC_NAME>
N-[9-[(2R,4S,5R)-5-[[bis(4-methoxyphenyl)-phenylmethoxy]methyl]-4-[2-cyanoethoxy-[di(propan-2-yl)amino]phosphanyl]oxyoxolan-2-yl]purin-6-yl]benzamide

> <PUBCHEM_IUPAC_SYSTEMATIC_NAME>
N-[9-[(2R,4S,5R)-5-[[bis(4-methoxyphenyl)-phenyl-methoxy]methyl]-4-[2-cyanoethoxy-[di(propan-2-yl)amino]phosphanyl]oxy-oxolan-2-yl]purin-6-yl]benzamide

> <PUBCHEM_IUPAC_TRADITIONAL_NAME>
N-[9-[(2R,4S,5R)-5-[[bis(4-methoxyphenyl)-phenyl-methoxy]methyl]-4-[2-cyanoethoxy-(diisopropylamino)phosphino]oxy-tetrahydrofuran-2-yl]purin-6-yl]benzamide

> <PUBCHEM_IUPAC_INCHI>
InChI=1S/C47H52N7O7P/c1-32(2)54(33(3)4)62(59-27-13-26-48)61-40-28-42(53-31-51-43-44(49-30-50-45(43)53)52-46(55)34-14-9-7-10-15-34)60-41(40)29-58-47(35-16-11-8-12-17-35,36-18-22-38(56-5)23-19-36)37-20-24-39(57-6)25-21-37/h7-12,14-25,30-33,40-42H,13,27-29H2,1-6H3,(H,49,50,52,55)/t40-,41+,42+,62?/m0/s1

> <PUBCHEM_IUPAC_INCHIKEY>
GGDNKEQZFSTIMJ-AKWFTNRHSA-N

> <PUBCHEM_XLOGP3>
6.8

> <PUBCHEM_EXACT_MASS>
857.36658402

> <PUBCHEM_MOLECULAR_FORMULA>
C47H52N7O7P

> <PUBCHEM_MOLECULAR_WEIGHT>
857.9

> <PUBCHEM_OPENEYE_CAN_SMILES>
CC(C)N(C(C)C)P(OCCC#N)OC1CC(OC1COC(C2=CC=CC=C2)(C3=CC=C(C=C3)OC)C4=CC=C(C=C4)OC)N5C=NC6=C(N=CN=C65)NC(=O)C7=CC=CC=C7

> <PUBCHEM_OPENEYE_ISO_SMILES>
CC(C)N(C(C)C)P(OCCC#N)O[C@H]1C[C@@H](O[C@@H]1COC(C2=CC=CC=C2)(C3=CC=C(C=C3)OC)C4=CC=C(C=C4)OC)N5C=NC6=C(N=CN=C65)NC(=O)C7=CC=CC=C7

> <PUBCHEM_CACTVS_TPSA>
155

> <PUBCHEM_MONOISOTOPIC_WEIGHT>
857.36658402

> <PUBCHEM_TOTAL_CHARGE>
0

> <PUBCHEM_HEAVY_ATOM_COUNT>
62

> <PUBCHEM_ATOM_DEF_STEREO_COUNT>
3

> <PUBCHEM_ATOM_UDEF_STEREO_COUNT>
1

> <PUBCHEM_BOND_DEF_STEREO_COUNT>
0

> <PUBCHEM_BOND_UDEF_STEREO_COUNT>
0

> <PUBCHEM_ISOTOPIC_ATOM_COUNT>
0

> <PUBCHEM_COMPONENT_COUNT>
1

> <PUBCHEM_CACTVS_TAUTO_COUNT>
4

> <PUBCHEM_COORDINATE_TYPE>
1
5
255

> <PUBCHEM_BONDANNOTATIONS>
1  10  3
11  23  8
11  24  8
12  22  8
12  42  8
13  30  8
13  42  8
17  20  5
22  24  8
24  30  8
25  35  8
25  37  8
26  36  8
26  38  8
27  39  8
27  40  8
16  3  6
35  43  8
36  44  8
37  45  8
38  46  8
39  47  8
40  48  8
43  49  8
44  50  8
45  49  8
46  50  8
47  51  8
48  51  8
54  58  8
54  59  8
58  60  8
59  61  8
60  62  8
61  62  8
19  9  5
9  22  8
9  23  8

$$$$
