162419
  -OEChem-06202310552D

 72 76  0     1  0  0  0  0  0999 V2000
    4.5411    1.0132    0.0000 O   0  0  0  0  0  0  0  0  0  0  0  0
    5.8144   -0.6424    0.0000 O   0  0  0  0  0  0  0  0  0  0  0  0
    2.6443   -0.7469    0.0000 O   0  0  0  0  0  0  0  0  0  0  0  0
    5.4641    2.6010    0.0000 O   0  0  0  0  0  0  0  0  0  0  0  0
    3.7320    5.6010    0.0000 O   0  0  0  0  0  0  0  0  0  0  0  0
    8.7533   -4.6874    0.0000 O   0  0  0  0  0  0  0  0  0  0  0  0
    9.6382    0.8998    0.0000 O   0  0  0  0  0  0  0  0  0  0  0  0
    3.7320    2.6010    0.0000 N   0  0  0  0  0  0  0  0  0  0  0  0
    4.5981    4.1010    0.0000 N   0  0  0  0  0  0  0  0  0  0  0  0
    4.2320    0.0621    0.0000 C   0  0  1  0  0  0  0  0  0  0  0  0
    3.2320    0.0621    0.0000 C   0  0  2  0  0  0  0  0  0  0  0  0
    2.9230    1.0132    0.0000 C   0  0  0  0  0  0  0  0  0  0  0  0
    3.7320    1.6010    0.0000 C   0  0  1  0  0  0  0  0  0  0  0  0
    4.8198   -0.7469    0.0000 C   0  0  0  0  0  0  0  0  0  0  0  0
    6.4021   -1.4514    0.0000 C   0  0  0  0  0  0  0  0  0  0  0  0
    6.9899   -2.2604    0.0000 C   0  0  0  0  0  0  0  0  0  0  0  0
    7.2112   -0.8636    0.0000 C   0  0  0  0  0  0  0  0  0  0  0  0
    2.8660    3.1010    0.0000 C   0  0  0  0  0  0  0  0  0  0  0  0
    5.5931   -2.0391    0.0000 C   0  0  0  0  0  0  0  0  0  0  0  0
    4.5981    3.1010    0.0000 C   0  0  0  0  0  0  0  0  0  0  0  0
    2.8660    4.1010    0.0000 C   0  0  0  0  0  0  0  0  0  0  0  0
    6.5832   -3.1739    0.0000 C   0  0  0  0  0  0  0  0  0  0  0  0
    7.1066    0.1309    0.0000 C   0  0  0  0  0  0  0  0  0  0  0  0
    7.9844   -2.1559    0.0000 C   0  0  0  0  0  0  0  0  0  0  0  0
    8.1247   -1.2703    0.0000 C   0  0  0  0  0  0  0  0  0  0  0  0
    5.6976   -3.0337    0.0000 C   0  0  0  0  0  0  0  0  0  0  0  0
    4.6796   -1.6324    0.0000 C   0  0  0  0  0  0  0  0  0  0  0  0
    3.7320    4.6010    0.0000 C   0  0  0  0  0  0  0  0  0  0  0  0
    2.0000    4.6010    0.0000 C   0  0  0  0  0  0  0  0  0  0  0  0
    7.1710   -3.9830    0.0000 C   0  0  0  0  0  0  0  0  0  0  0  0
    7.9156    0.7187    0.0000 C   0  0  0  0  0  0  0  0  0  0  0  0
    8.5722   -2.9649    0.0000 C   0  0  0  0  0  0  0  0  0  0  0  0
    8.9337   -0.6825    0.0000 C   0  0  0  0  0  0  0  0  0  0  0  0
    4.8886   -3.6215    0.0000 C   0  0  0  0  0  0  0  0  0  0  0  0
    3.8706   -2.2202    0.0000 C   0  0  0  0  0  0  0  0  0  0  0  0
    8.1655   -3.8784    0.0000 C   0  0  0  0  0  0  0  0  0  0  0  0
    8.8292    0.3120    0.0000 C   0  0  0  0  0  0  0  0  0  0  0  0
    3.9751   -3.2147    0.0000 C   0  0  0  0  0  0  0  0  0  0  0  0
    8.3466   -5.6010    0.0000 C   0  0  0  0  0  0  0  0  0  0  0  0
   10.5518    0.4930    0.0000 C   0  0  0  0  0  0  0  0  0  0  0  0
    4.8444    0.1591    0.0000 H   0  0  0  0  0  0  0  0  0  0  0  0
    3.5135   -0.4903    0.0000 H   0  0  0  0  0  0  0  0  0  0  0  0
    2.6130    1.5501    0.0000 H   0  0  0  0  0  0  0  0  0  0  0  0
    2.3566    0.7610    0.0000 H   0  0  0  0  0  0  0  0  0  0  0  0
    4.2845    1.8824    0.0000 H   0  0  0  0  0  0  0  0  0  0  0  0
    4.2626   -1.0187    0.0000 H   0  0  0  0  0  0  0  0  0  0  0  0
    4.9907   -1.3429    0.0000 H   0  0  0  0  0  0  0  0  0  0  0  0
    2.0277   -0.6821    0.0000 H   0  0  0  0  0  0  0  0  0  0  0  0
    2.3291    2.7910    0.0000 H   0  0  0  0  0  0  0  0  0  0  0  0
    5.1350    4.4110    0.0000 H   0  0  0  0  0  0  0  0  0  0  0  0
    5.9666   -3.2387    0.0000 H   0  0  0  0  0  0  0  0  0  0  0  0
    6.5402    0.3831    0.0000 H   0  0  0  0  0  0  0  0  0  0  0  0
    8.2366   -1.5895    0.0000 H   0  0  0  0  0  0  0  0  0  0  0  0
    8.1895   -1.8869    0.0000 H   0  0  0  0  0  0  0  0  0  0  0  0
    6.2640   -3.2858    0.0000 H   0  0  0  0  0  0  0  0  0  0  0  0
    4.6148   -1.0158    0.0000 H   0  0  0  0  0  0  0  0  0  0  0  0
    2.3100    5.1379    0.0000 H   0  0  0  0  0  0  0  0  0  0  0  0
    1.4631    4.9110    0.0000 H   0  0  0  0  0  0  0  0  0  0  0  0
    1.6900    4.0640    0.0000 H   0  0  0  0  0  0  0  0  0  0  0  0
    6.9188   -4.5493    0.0000 H   0  0  0  0  0  0  0  0  0  0  0  0
    7.8508    1.3353    0.0000 H   0  0  0  0  0  0  0  0  0  0  0  0
    9.1888   -2.9001    0.0000 H   0  0  0  0  0  0  0  0  0  0  0  0
    9.5001   -0.9347    0.0000 H   0  0  0  0  0  0  0  0  0  0  0  0
    4.9534   -4.2381    0.0000 H   0  0  0  0  0  0  0  0  0  0  0  0
    3.3042   -1.9680    0.0000 H   0  0  0  0  0  0  0  0  0  0  0  0
    3.4735   -3.5792    0.0000 H   0  0  0  0  0  0  0  0  0  0  0  0
    7.7802   -5.3488    0.0000 H   0  0  0  0  0  0  0  0  0  0  0  0
    8.0944   -6.1674    0.0000 H   0  0  0  0  0  0  0  0  0  0  0  0
    8.9129   -5.8532    0.0000 H   0  0  0  0  0  0  0  0  0  0  0  0
   10.2996   -0.0734    0.0000 H   0  0  0  0  0  0  0  0  0  0  0  0
   11.1182    0.2409    0.0000 H   0  0  0  0  0  0  0  0  0  0  0  0
   10.8039    1.0594    0.0000 H   0  0  0  0  0  0  0  0  0  0  0  0
  1 10  1  0  0  0  0
  1 13  1  0  0  0  0
  2 14  1  0  0  0  0
  2 15  1  0  0  0  0
 11  3  1  1  0  0  0
  3 48  1  0  0  0  0
  4 20  2  0  0  0  0
  5 28  2  0  0  0  0
  6 36  1  0  0  0  0
  6 39  1  0  0  0  0
  7 37  1  0  0  0  0
  7 40  1  0  0  0  0
 13  8  1  6  0  0  0
  8 18  1  0  0  0  0
  8 20  1  0  0  0  0
  9 20  1  0  0  0  0
  9 28  1  0  0  0  0
  9 50  1  0  0  0  0
 10 11  1  0  0  0  0
 10 14  1  6  0  0  0
 10 41  1  0  0  0  0
 11 12  1  0  0  0  0
 11 42  1  0  0  0  0
 12 13  1  0  0  0  0
 12 43  1  0  0  0  0
 12 44  1  0  0  0  0
 13 45  1  0  0  0  0
 14 46  1  0  0  0  0
 14 47  1  0  0  0  0
 15 16  1  0  0  0  0
 15 17  1  0  0  0  0
 15 19  1  0  0  0  0
 16 22  2  0  0  0  0
 16 24  1  0  0  0  0
 17 23  2  0  0  0  0
 17 25  1  0  0  0  0
 18 21  2  0  0  0  0
 18 49  1  0  0  0  0
 19 26  2  0  0  0  0
 19 27  1  0  0  0  0
 21 28  1  0  0  0  0
 21 29  1  0  0  0  0
 22 30  1  0  0  0  0
 22 51  1  0  0  0  0
 23 31  1  0  0  0  0
 23 52  1  0  0  0  0
 24 32  2  0  0  0  0
 24 53  1  0  0  0  0
 25 33  2  0  0  0  0
 25 54  1  0  0  0  0
 26 34  1  0  0  0  0
 26 55  1  0  0  0  0
 27 35  2  0  0  0  0
 27 56  1  0  0  0  0
 29 57  1  0  0  0  0
 29 58  1  0  0  0  0
 29 59  1  0  0  0  0
 30 36  2  0  0  0  0
 30 60  1  0  0  0  0
 31 37  2  0  0  0  0
 31 61  1  0  0  0  0
 32 36  1  0  0  0  0
 32 62  1  0  0  0  0
 33 37  1  0  0  0  0
 33 63  1  0  0  0  0
 34 38  2  0  0  0  0
 34 64  1  0  0  0  0
 35 38  1  0  0  0  0
 35 65  1  0  0  0  0
 38 66  1  0  0  0  0
 39 67  1  0  0  0  0
 39 68  1  0  0  0  0
 39 69  1  0  0  0  0
 40 70  1  0  0  0  0
 40 71  1  0  0  0  0
 40 72  1  0  0  0  0
M  END
> <PUBCHEM_COMPOUND_CID>
162419

> <PUBCHEM_COMPOUND_CANONICALIZED>
1

> <PUBCHEM_CACTVS_COMPLEXITY>
879

> <PUBCHEM_CACTVS_HBOND_ACCEPTOR>
7

> <PUBCHEM_CACTVS_HBOND_DONOR>
2

> <PUBCHEM_CACTVS_ROTATABLE_BOND>
9

> <PUBCHEM_CACTVS_SUBSKEYS>
AAADcfB7OAAAAAAAAAAAAAAAAAAAASAAAAAwYMEAAAAAAAABUAAAHgAQCAAADFThmAYzBoPABgCIAiFWUACCCAAgIAAIiAEOCMiNNiKEsRqOcCAvxzMLqMew8P4OoAAAAAAAAABAAAAAAAAAAAAAAAAAAA==

> <PUBCHEM_IUPAC_OPENEYE_NAME>
1-[(2R,4S,5R)-5-[[bis(4-methoxyphenyl)-phenyl-methoxy]methyl]-4-hydroxy-tetrahydrofuran-2-yl]-5-methyl-pyrimidine-2,4-dione

> <PUBCHEM_IUPAC_CAS_NAME>
1-[(2R,4S,5R)-5-[[bis(4-methoxyphenyl)-phenylmethoxy]methyl]-4-hydroxy-2-oxolanyl]-5-methylpyrimidine-2,4-dione

> <PUBCHEM_IUPAC_NAME_MARKUP>
1-[(2<I>R</I>,4<I>S</I>,5<I>R</I>)-5-[[bis(4-methoxyphenyl)-phenylmethoxy]methyl]-4-hydroxyoxolan-2-yl]-5-methylpyrimidine-2,4-dione

> <PUBCHEM_IUPAC_NAME>
1-[(2R,4S,5R)-5-[[bis(4-methoxyphenyl)-phenylmethoxy]methyl]-4-hydroxyoxolan-2-yl]-5-methylpyrimidine-2,4-dione

> <PUBCHEM_IUPAC_SYSTEMATIC_NAME>
1-[(2R,4S,5R)-5-[[bis(4-methoxyphenyl)-phenyl-methoxy]methyl]-4-oxidanyl-oxolan-2-yl]-5-methyl-pyrimidine-2,4-dione

> <PUBCHEM_IUPAC_TRADITIONAL_NAME>
1-[(2R,4S,5R)-5-[[bis(4-methoxyphenyl)-phenyl-methoxy]methyl]-4-hydroxy-tetrahydrofuran-2-yl]-5-methyl-pyrimidine-2,4-quinone

> <PUBCHEM_IUPAC_INCHI>
InChI=1S/C31H32N2O7/c1-20-18-33(30(36)32-29(20)35)28-17-26(34)27(40-28)19-39-31(21-7-5-4-6-8-21,22-9-13-24(37-2)14-10-22)23-11-15-25(38-3)16-12-23/h4-16,18,26-28,34H,17,19H2,1-3H3,(H,32,35,36)/t26-,27+,28+/m0/s1

> <PUBCHEM_IUPAC_INCHIKEY>
UBTJZUKVKGZHAD-UPRLRBBYSA-N

> <PUBCHEM_XLOGP3>
3.4

> <PUBCHEM_EXACT_MASS>
544.22095136

> <PUBCHEM_MOLECULAR_FORMULA>
C31H32N2O7

> <PUBCHEM_MOLECULAR_WEIGHT>
544.6

> <PUBCHEM_OPENEYE_CAN_SMILES>
CC1=CN(C(=O)NC1=O)C2CC(C(O2)COC(C3=CC=CC=C3)(C4=CC=C(C=C4)OC)C5=CC=C(C=C5)OC)O

> <PUBCHEM_OPENEYE_ISO_SMILES>
CC1=CN(C(=O)NC1=O)[C@H]2C[C@@H]([C@H](O2)COC(C3=CC=CC=C3)(C4=CC=C(C=C4)OC)C5=CC=C(C=C5)OC)O

> <PUBCHEM_CACTVS_TPSA>
107

> <PUBCHEM_MONOISOTOPIC_WEIGHT>
544.22095136

> <PUBCHEM_TOTAL_CHARGE>
0

> <PUBCHEM_HEAVY_ATOM_COUNT>
40

> <PUBCHEM_ATOM_DEF_STEREO_COUNT>
3

> <PUBCHEM_ATOM_UDEF_STEREO_COUNT>
0

> <PUBCHEM_BOND_DEF_STEREO_COUNT>
0

> <PUBCHEM_BOND_UDEF_STEREO_COUNT>
0

> <PUBCHEM_ISOTOPIC_ATOM_COUNT>
0

> <PUBCHEM_COMPONENT_COUNT>
1

> <PUBCHEM_CACTVS_TAUTO_COUNT>
3

> <PUBCHEM_COORDINATE_TYPE>
1
5
255

> <PUBCHEM_BONDANNOTATIONS>
10  14  6
16  22  8
16  24  8
17  23  8
17  25  8
18  21  8
19  26  8
19  27  8
21  28  8
22  30  8
23  31  8
24  32  8
25  33  8
26  34  8
27  35  8
11  3  5
30  36  8
31  37  8
32  36  8
33  37  8
34  38  8
35  38  8
13  8  6
8  18  8
8  20  8
9  20  8
9  28  8

$$$$
